test/data/opendss/ut_trans_2w_yy_oltc.dss
clear

! Base Frequency
Set DefaultBaseFrequency=60

! New Circuit
New circuit.ut_trans
~ BasekV=11 BaseMVA=0.1 pu=1.0  ISC3=9999999999 ISC1=9999999999

! Transformers
New Transformer.TX1 windings=2 phases=3 Buses=[1 2]
~ Conns=[Wye Wye]
~ kVs=[11 4]
~ kVAs=[500 500]
~ %Rs=[1 2]
~ xhl=5
!~ %noloadloss=5
!~ %imag=11
!~ leadlag=lead
~ taps=[0.95 1.05]
~ mintap=0.95
~ maxtap=1.05


! Transmission Lines
New Line.LINE1 Bus1=SourceBus Bus2=1 phases=3 X1=3 R1=6 C1=0 C0=0
New Line.LINE2 Bus1=2 Bus2=3 phases=3 X1=0.3 R1=0.6 C1=0 C0=0

! Loads
New Load.LOAD1 Phases=1 Bus1=1.1 kV=6.531 kW=43 kvar=76 vminpu=0.8 vmaxpu=1.2
New Load.LOAD2 Phases=1 Bus1=1.2 kV=6.531 kW=52 kvar=85 vminpu=0.8 vmaxpu=1.2
New Load.LOAD3 Phases=1 Bus1=1.3 kV=6.531 kW=61 kvar=94 vminpu=0.8 vmaxpu=1.2
New Load.LOAD4 Phases=1 Bus1=3.1 kV=2.3 kW=74 kvar=41 vminpu=0.8 vmaxpu=1.2
New Load.LOAD5 Phases=1 Bus1=3.2 kV=2.3 kW=85 kvar=52 vminpu=0.8 vmaxpu=1.2
New Load.LOAD6 Phases=1 Bus1=3.3 kV=2.3 kW=96 kvar=63 vminpu=0.8 vmaxpu=1.2

! Set Voltage Bases
Set voltagebases=[11 4]
Calcvoltagebases

! Solve network
solve
